<?xml version="1.0" encoding="iso-8859-1"?>
<!--
<ReadMe>

This XML can be imported in Altium Designer 14 using WEBENCH Altium Connector Extension and simulated using WEBENCH Simulation Engine.
The WEBENCH Altium Connector provides an interface to the Texas Instruments WEBENCH Designer Tools as well as to open WEBENCH exported Designs directly from inside Altium Designer.
It also includes the advanced WEBENCH Simulation Engine which can be used for offline circuit simulations.
You will need a activation key from TI to be able to use the WEBENCH Simulation Engine.

Installation guide:
http://www.ti.com/lit/SNVU481
You can download the WEBENCH extension from Altium Designer 14 Extensions.

Connector Details:
http://www.ti.com/lsds/ti/analog/webench/altiumconnector.page

More about WEBENCH simulation export to Altium:
http://www.ti.com/lsds/ti/analog/webench/simexportaltium.page

User Manual:
http://www.ti.com/lit/szzu007

</ReadMe>
-->
<schematic>
  <circuit>
    <text id="T_123456" position="400,-148" fontname="Times New Roman" fontsize="27" bold="0" color="#294901">
      <![CDATA[TPS54A24 Startup Simulation
(Exported from WEBENCH® Designer)]]>
    </text>
    <text id="T_123456" position="945,-148" fontname="Arial" fontsize="13" bold="1" italic="1" color="#278190" border="1">
      <![CDATA[Title :    TPS54A24RTWR 5V-5V to 3.30V @ 6A
-------------------------------------------------------------------------
WEBENCH® Design ID                  :       22
Date of WEBENCH® Export           :       28-Oct-2020
Time of WEBENCH® Export          :       9:29:36 AM
WEBENCH® Export Tool Version :       E1.67-X2.27]]>
    </text>
    <component type="Ground" typeid="2" position="1590,760" mirrored="0" nodematch="0" macrotype="2" orientation="0">
			<parameter idx="0" encrypted="0">
			</parameter>
			<image>
				<label text="GND1" position="1590,760" textroot="GND1" orientation="0" color="#228822"/>
			</image>
		</component>
    <component type="L1" typeid="57" position="2080,310" mirrored="0" nodematch="0" macrotype="2" orientation="0">
			<parameter idx="0" encrypted="0">
        <![CDATA[
***********************************
*     Created by WB Importer      *
***********************************
.SUBCKT MAIN_BLOCK_L1_WB_INDUCTOR 1 2
L1 2 3 5.0E-7
RDCR 3 1 0.007
.ENDS]]>
      </parameter>
			<image>
				<label text="L1" position="2046,288" textroot=" " orientation="0" color=""/>  <hotzone points="60,-10,-60,10"/>
        <shape type="line" width="Hair" color="#0000ff" points="-40,0,-60,0"/>
        <shape type="line" width="Hair" color="#0000ff" points="40,0,60,0"/>
        <legend text="0.5 uH" position="-30,18" orientation="0" fontname="Arial" fontsize="12" bold="0" italic="0" color="#229922"/>
        <legend text="7 mOhm" position="-30,32" orientation="0" fontname="Arial" fontsize="12" bold="0" italic="0" color="#229922"/>
        <shape type="arc" color="#0000ff" width="2" points="20,10,40,-10,270,90"/>
        <shape type="arc" color="#0000ff" width="2" points="20,10,40,-10,180,90"/>
        <shape type="arc" color="#0000ff" width="2" points="0,10,20,-10,270,90"/>
        <shape type="arc" color="#0000ff" width="2" points="0,10,20,-10,180,90"/>
        <shape type="arc" color="#0000ff" width="2" points="-20,10,0,-10,270,90"/>
        <shape type="arc" color="#0000ff" width="2" points="-20,10,0,-10,180,90"/>
        <shape type="arc" color="#0000ff" width="2" points="-40,10,-20,-10,270,90"/>
        <shape type="arc" color="#0000ff" width="2" points="-40,10,-20,-10,180,90"/>
        <pin position="60,0" dir="0" length="0" text="1"/>
        <pin position="-60,0" dir="0" length="0" text="2"/>
      </image>
		</component>
    <component type="IOut" typeid="34" position="2980,310" mirrored="0" nodematch="0" macrotype="2" orientation="0">
			<parameter idx="0" encrypted="0">
			</parameter>
			<image>
				<label text="IOut" position="2980,310" textroot=" " orientation="0" color=""/>  <hotzone points="-30,-6,30,6"/>
        <shape type="line" width="Hair" color="#0000ff" points="-30,0,30,0"/>
        <shape type="line" width="1" color="#0000ff" points="-6,-4,-6,4"/>
        <shape type="line" width="1" color="#0000ff" points="-6,4,4,0"/>
        <shape type="line" width="1" color="#0000ff" points="4,0,-6,-4"/>
        <pin position="-30,0" dir="0" length="0" text="1"/>
        <pin position="30,0" dir="0" length="0" text="2"/>
      </image>  <parameter idx="0" encrypted="0">
        <![CDATA[***********************************
*     Created by WB Importer      *
***********************************
.SUBCKT IOut 1 2 
V_Iprobe 1 2 0.0
.ENDS
]]>
      </parameter>
      <parameter idx="1" name="VALUE" value="0"/>
    </component>
    <component type="Ccomp" typeid="57" position="2290,630" mirrored="0" nodematch="0" macrotype="2" orientation="0">
			<parameter idx="0" encrypted="0">
        <![CDATA[
***********************************
*     Created by WB Importer      *
***********************************
.subckt MAIN_BLOCK_WB_TPS54A24_MAIN_BLOCK_NEW_Ccomp 1 2
Ccomp 1 2 1.8E-9

.ends]]>
      </parameter>
			<image>
				<label text="Ccomp" position="2296,608" textroot=" " orientation="0" color=""/>  <hotzone points="24,-60,-24,60"/>
        <shape type="line" width="Hair" color="#0000ff" points="0,60,0,40"/>
        <shape type="line" width="Hair" color="#0000ff" points="0,-60,0,-40"/>
        <shape type="line" width="1" color="#0000ff" points="-24,6,24,6"/>
        <shape type="line" width="1" color="#0000ff" points="0,-40,0,-6"/>
        <shape type="line" width="1" color="#0000ff" points="0,6,0,40"/>
        <shape type="line" width="1" color="#0000ff" points="-24,-6,24,-6"/>
        <legend text="1.8 nF" position="8,18" orientation="0" fontname="Arial" fontsize="12" bold="0" italic="0" color="#229922"/>
        <legend text="" position="8,32" orientation="0" fontname="Arial" fontsize="12" bold="0" italic="0" color="#229922"/>
        <legend text="" position="8,48" orientation="0" fontname="Arial" fontsize="12" bold="0" italic="0" color="#229922"/>
        <pin position="0,60" dir="0" length="0" text="1"/>
        <pin position="0,-60" dir="0" length="0" text="2"/>
      </image>
		</component>
    <component type="VSwitch" typeid="4" position="2010,310" mirrored="0" nodematch="0" macrotype="2" orientation="0">
			<parameter idx="0" encrypted="0">
			</parameter>
			<image>
				<label text="VSwitch" position="2010,280" textroot="VSwitch" orientation="0" color="#228822"/>
			</image>
		</component>
    <component type="Rcomp" typeid="57" position="2200,520" mirrored="0" nodematch="0" macrotype="2" orientation="0">
			<parameter idx="0" encrypted="0">
        <![CDATA[
***********************************
*     Created by WB Importer      *
***********************************
.subckt MAIN_BLOCK_WB_TPS54A24_MAIN_BLOCK_NEW_Rcomp 1 2
Rcomp 1 2 10000.0

.ends]]>
      </parameter>
			<image>
				<label text="Rcomp" position="2170,496" textroot=" " orientation="0" color=""/>  <hotzone points="60,10,-60,-10"/>
        <shape type="line" width="1" color="#0000ff" points="60,0,40,0"/>
        <shape type="line" width="1" color="#0000ff" points="40,0,30,10"/>
        <shape type="line" width="1" color="#0000ff" points="30,10,10,-10"/>
        <shape type="line" width="1" color="#0000ff" points="10,-10,-10,10"/>
        <shape type="line" width="1" color="#0000ff" points="-10,10,-30,-10"/>
        <shape type="line" width="1" color="#0000ff" points="-30,-10,-40,0"/>
        <shape type="line" width="1" color="#0000ff" points="-40,0,-60,0"/>
        <legend text="10 kOhm" position="-36,20" orientation="0" fontname="Arial" fontsize="12" bold="0" italic="0" color="#229922"/>
        <pin position="-60,0" dir="0" length="0" text="1"/>
        <pin position="60,0" dir="0" length="0" text="2"/>
      </image>
		</component>
    <component type="Cin" typeid="57" position="680,520" mirrored="0" nodematch="0" macrotype="2" orientation="0">
			<parameter idx="0" encrypted="0">
        <![CDATA[
***********************************
*     Created by WB Importer      *
***********************************
.SUBCKT MAIN_BLOCK_Cin_WB_CAP_POLARIZED 1 2
Ccap 1 3 1.0E-5
Resr 3 2 0.003
.ENDS]]>
      </parameter>
			<image>
				<label text="Cin" position="686,498" textroot=" " orientation="0" color=""/>  <hotzone points="-24,60,24,-60"/>
        <shape type="line" width="Hair" color="#0000ff" points="0,-60,0,-40"/>
        <shape type="line" width="Hair" color="#0000ff" points="0,60,0,40"/>
        <shape type="line" width="1" color="#0000ff" points="24,-6,-24,-6"/>
        <shape type="line" width="1" color="#0000ff" points="0,40,0,6"/>
        <shape type="line" width="1" color="#0000ff" points="0,-6,0,-40"/>
        <shape type="line" width="1" color="#0000ff" points="24,6,-24,6"/>
        <legend text="10 uF" position="8,18" orientation="0" fontname="Arial" fontsize="12" bold="0" italic="0" color="#229922"/>
        <legend text="3 mOhm" position="8,32" orientation="0" fontname="Arial" fontsize="12" bold="0" italic="0" color="#229922"/>
        <legend text="" position="8,48" orientation="0" fontname="Arial" fontsize="12" bold="0" italic="0" color="#229922"/>
        <pin position="0,-60" dir="0" length="0" text="1"/>
        <pin position="0,60" dir="0" length="0" text="2"/>
      </image>
		</component>
    <component type="TPS54A24RTWR" typeid="57" position="1620,420" mirrored="0" nodematch="0" macrotype="2" orientation="0">
			<parameter idx="0" encrypted="0">
        <![CDATA[*****************************************************************************
** MAIN_BLOCK.U1.WB_TPS54A24RTW Spice Model
*****************************************************************************
** (C) Copyright 2020 Texas Instruments Incorporated. All rights reserved.
** This model is designed as an aid for customers of Texas Instruments.
** TI and its licensors and suppliers make no warranties, either expressed
** or implied, with respect to this model, including the warranties of
** merchantability or fitness for a particular purpose. The model is
** provided solely on an "as is" basis. The entire risk as to its quality
** and performance is with the customer
*****************************************************************************
*****************************************************************************

.SUBCKT MAIN_BLOCK_U1_WB_TPS54A24RTW_ENCR AGND VIN_0 VIN_1 PGND_0 PGND_1 PGND_2 PGND_3 SW_0 SW_1 SW_2 SW_3 PGND_4 PGND_5 PGND_6 PGND_7     VIN_2 VIN_3 BOOT PWRGD EN SS_TR COMP FB RT PAD PARAMS: SS=0
.include pspice://../MAIN_BLOCK.U1.WB_TPS54A24RTW.enl
XCALL AGND VIN_0 VIN_1 PGND_0 PGND_1 PGND_2 PGND_3 SW_0 SW_1 SW_2 SW_3 PGND_4 PGND_5 PGND_6 PGND_7     VIN_2 VIN_3 BOOT PWRGD EN SS_TR COMP FB RT PAD MAIN_BLOCK_U1_WB_TPS54A24RTW PARAMS: SS=0 
.ENDS
]]>
      </parameter>
			<image>
				<label text="U1" position="1460,140" textroot="U1 " orientation="0" color=""/>  <hotzone points="-160,-260,160,260"/>
        <shape type="line" width="Hair" color="#0000ff" points="-120,220,120,220"/>
        <shape type="line" width="Hair" color="#0000ff" points="120,220,120,-220"/>
        <shape type="line" width="Hair" color="#0000ff" points="120,-220,-120,-220"/>
        <shape type="line" width="Hair" color="#0000ff" points="-120,-220,-120,220"/>
        <shape type="line" width="Hair" color="#0000ff" points="160,200,120,200"/>
        <shape type="line" width="Hair" color="#0000ff" points="-160,-180,-120,-180"/>
        <shape type="line" width="Hair" color="#0000ff" points="-160,-160,-120,-160"/>
        <shape type="line" width="Hair" color="#0000ff" points="-160,-60,-120,-60"/>
        <shape type="line" width="Hair" color="#0000ff" points="-160,-40,-120,-40"/>
        <shape type="line" width="Hair" color="#0000ff" points="-160,-20,-120,-20"/>
        <shape type="line" width="Hair" color="#0000ff" points="-160,0,-120,0"/>
        <shape type="line" width="Hair" color="#0000ff" points="160,-100,120,-100"/>
        <shape type="line" width="Hair" color="#0000ff" points="160,-80,120,-80"/>
        <shape type="line" width="Hair" color="#0000ff" points="160,-60,120,-60"/>
        <shape type="line" width="Hair" color="#0000ff" points="160,-40,120,-40"/>
        <shape type="line" width="Hair" color="#0000ff" points="-160,20,-120,20"/>
        <shape type="line" width="Hair" color="#0000ff" points="-160,40,-120,40"/>
        <shape type="line" width="Hair" color="#0000ff" points="-160,60,-120,60"/>
        <shape type="line" width="Hair" color="#0000ff" points="-160,80,-120,80"/>
        <shape type="line" width="Hair" color="#0000ff" points="-160,-140,-120,-140"/>
        <shape type="line" width="Hair" color="#0000ff" points="-160,-120,-120,-120"/>
        <shape type="line" width="Hair" color="#0000ff" points="160,-140,120,-140"/>
        <shape type="line" width="Hair" color="#0000ff" points="160,-180,120,-180"/>
        <shape type="line" width="Hair" color="#0000ff" points="-160,160,-120,160"/>
        <shape type="line" width="Hair" color="#0000ff" points="-160,200,-120,200"/>
        <shape type="line" width="Hair" color="#0000ff" points="160,60,120,60"/>
        <shape type="line" width="Hair" color="#0000ff" points="160,20,120,20"/>
        <shape type="line" width="Hair" color="#0000ff" points="160,100,120,100"/>
        <shape type="line" width="Hair" color="#0000ff" points="-160,120,-120,120"/>
        <shape type="line" width="1" color="#ff0000" points="-1,-195,-2,-190"/>
        <shape type="line" width="1" color="#ff0000" points="-1,-197,-1,-197"/>
        <shape type="polygon" width="1" color="#ff0000" fill="#ff0000" points="-7,-199,-7,-193,-11,-193,-11,-192,-10,-191,-9,-189,-8,-188,-7,-188,-6,-189,-5,-188,-4,-186,-1,-184,0,-184,0,-186,1,-188,3,-189,4,-190,4,-193,3,-194,3,-196,1,-196,0,-194,2,-194,1,-192,0,-192,-1,-190,0,-190,0,-189,-1,-188,-3,-188,-4,-189,-3,-192,-5,-192,-4,-194,-3,-194,-3,-194,-2,-196,-4,-196,-4,-198,-4,-199"/>
        <legend text="TPS54A24RTW" position="-44,-164" orientation="0" fontname="Arial" fontsize="10" bold="0" italic="0" color="4278190208"/>
        <pin position="160,200" dir="0" length="0" text="AGND">
          <legend text="AGND" position="100,190" orientation="0" fontname="Arial" fontsize="10" bold="0" italic="0" color="4286578688"/>
        </pin>
        <pin position="-160,-180" dir="0" length="0" text="VIN_0">
          <legend text="VIN_0" position="-138,-190" orientation="0" fontname="Arial" fontsize="10" bold="0" italic="0" color="4286578688"/>
        </pin>
        <pin position="-160,-160" dir="0" length="0" text="VIN_1">
          <legend text="VIN_1" position="-138,-170" orientation="0" fontname="Arial" fontsize="10" bold="0" italic="0" color="4286578688"/>
        </pin>
        <pin position="-160,-60" dir="0" length="0" text="PGND_0">
          <legend text="PGND_0" position="-138,-70" orientation="0" fontname="Arial" fontsize="10" bold="0" italic="0" color="4286578688"/>
        </pin>
        <pin position="-160,-40" dir="0" length="0" text="PGND_1">
          <legend text="PGND_1" position="-138,-50" orientation="0" fontname="Arial" fontsize="10" bold="0" italic="0" color="4286578688"/>
        </pin>
        <pin position="-160,-20" dir="0" length="0" text="PGND_2">
          <legend text="PGND_2" position="-138,-30" orientation="0" fontname="Arial" fontsize="10" bold="0" italic="0" color="4286578688"/>
        </pin>
        <pin position="-160,0" dir="0" length="0" text="PGND_3">
          <legend text="PGND_3" position="-138,-10" orientation="0" fontname="Arial" fontsize="10" bold="0" italic="0" color="4286578688"/>
        </pin>
        <pin position="160,-100" dir="0" length="0" text="SW_0">
          <legend text="SW_0" position="100,-110" orientation="0" fontname="Arial" fontsize="10" bold="0" italic="0" color="4286578688"/>
        </pin>
        <pin position="160,-80" dir="0" length="0" text="SW_1">
          <legend text="SW_1" position="100,-90" orientation="0" fontname="Arial" fontsize="10" bold="0" italic="0" color="4286578688"/>
        </pin>
        <pin position="160,-60" dir="0" length="0" text="SW_2">
          <legend text="SW_2" position="100,-70" orientation="0" fontname="Arial" fontsize="10" bold="0" italic="0" color="4286578688"/>
        </pin>
        <pin position="160,-40" dir="0" length="0" text="SW_3">
          <legend text="SW_3" position="100,-50" orientation="0" fontname="Arial" fontsize="10" bold="0" italic="0" color="4286578688"/>
        </pin>
        <pin position="-160,20" dir="0" length="0" text="PGND_4">
          <legend text="PGND_4" position="-138,10" orientation="0" fontname="Arial" fontsize="10" bold="0" italic="0" color="4286578688"/>
        </pin>
        <pin position="-160,40" dir="0" length="0" text="PGND_5">
          <legend text="PGND_5" position="-138,30" orientation="0" fontname="Arial" fontsize="10" bold="0" italic="0" color="4286578688"/>
        </pin>
        <pin position="-160,60" dir="0" length="0" text="PGND_6">
          <legend text="PGND_6" position="-138,50" orientation="0" fontname="Arial" fontsize="10" bold="0" italic="0" color="4286578688"/>
        </pin>
        <pin position="-160,80" dir="0" length="0" text="PGND_7">
          <legend text="PGND_7" position="-138,70" orientation="0" fontname="Arial" fontsize="10" bold="0" italic="0" color="4286578688"/>
        </pin>
        <pin position="-160,-140" dir="0" length="0" text="VIN_2">
          <legend text="VIN_2" position="-138,-150" orientation="0" fontname="Arial" fontsize="10" bold="0" italic="0" color="4286578688"/>
        </pin>
        <pin position="-160,-120" dir="0" length="0" text="VIN_3">
          <legend text="VIN_3" position="-138,-130" orientation="0" fontname="Arial" fontsize="10" bold="0" italic="0" color="4286578688"/>
        </pin>
        <pin position="160,-140" dir="0" length="0" text="BOOT">
          <legend text="BOOT" position="100,-150" orientation="0" fontname="Arial" fontsize="10" bold="0" italic="0" color="4286578688"/>
        </pin>
        <pin position="160,-180" dir="0" length="0" text="PWRGD">
          <legend text="PWRGD" position="90,-190" orientation="0" fontname="Arial" fontsize="10" bold="0" italic="0" color="4286578688"/>
        </pin>
        <pin position="-160,160" dir="0" length="0" text="EN">
          <legend text="EN" position="-138,150" orientation="0" fontname="Arial" fontsize="10" bold="0" italic="0" color="4286578688"/>
        </pin>
        <pin position="-160,200" dir="0" length="0" text="SS_TR">
          <legend text="SS_TR" position="-138,190" orientation="0" fontname="Arial" fontsize="10" bold="0" italic="0" color="4286578688"/>
        </pin>
        <pin position="160,60" dir="0" length="0" text="COMP">
          <legend text="COMP" position="100,50" orientation="0" fontname="Arial" fontsize="10" bold="0" italic="0" color="4286578688"/>
        </pin>
        <pin position="160,20" dir="0" length="0" text="FB">
          <legend text="FB" position="120,10" orientation="0" fontname="Arial" fontsize="10" bold="0" italic="0" color="4286578688"/>
        </pin>
        <pin position="160,100" dir="0" length="0" text="RT">
          <legend text="RT" position="120,90" orientation="0" fontname="Arial" fontsize="10" bold="0" italic="0" color="4286578688"/>
        </pin>
        <pin position="-160,120" dir="0" length="0" text="PAD">
          <legend text="PAD" position="-138,110" orientation="0" fontname="Arial" fontsize="10" bold="0" italic="0" color="4286578688"/>
        </pin>
      </image>
		</component>
    <component type="IIn" typeid="34" position="620,240" mirrored="0" nodematch="0" macrotype="2" orientation="0">
			<parameter idx="0" encrypted="0">
			</parameter>
			<image>
				<label text="IIn" position="620,240" textroot=" " orientation="0" color=""/>  <hotzone points="-30,-6,30,6"/>
        <shape type="line" width="Hair" color="#0000ff" points="-30,0,30,0"/>
        <shape type="line" width="1" color="#0000ff" points="-6,-4,-6,4"/>
        <shape type="line" width="1" color="#0000ff" points="-6,4,4,0"/>
        <shape type="line" width="1" color="#0000ff" points="4,0,-6,-4"/>
        <pin position="-30,0" dir="0" length="0" text="1"/>
        <pin position="30,0" dir="0" length="0" text="2"/>
      </image>  <parameter idx="0" encrypted="0">
        <![CDATA[***********************************
*     Created by WB Importer      *
***********************************
.SUBCKT IIn 1 2 
V_Iprobe 1 2 0.0
.ENDS
]]>
      </parameter>
      <parameter idx="1" name="VALUE" value="0"/>
    </component>
    <component type="Cout1" typeid="57" position="2670,530" mirrored="0" nodematch="0" macrotype="2" orientation="0">
			<parameter idx="0" encrypted="0">
        <![CDATA[
***********************************
*     Created by WB Importer      *
***********************************
.SUBCKT MAIN_BLOCK_Cout1_WB_CAP_CERAMIC 2 4
R1 2 3 0.004885
C1 3 4 3.8E-5 IC=0.0
R3 5 4 5
R2 2 4 2.631578947368421E7
R4 3 26 1085555.5555555555
R6 3 7 1085.5555555555557
C5 7 1 1.14E-6 IC=0.0
R7 3 10 108.55555555555556
C6 10 1 1.14E-6 IC=0.0
R8 3 13 10.855555555555556
C7 13 1 1.14E-6 IC=0.0
C2 26 1 1.14E-6 IC=0.0
R9 3 28 108555.55555555556
C3 28 1 1.14E-6 IC=0.0
R10 3 29 10855.555555555557
C4 29 1 1.14E-6 IC=0.0
L8 1 5 15p
R24 1 5 0.014654999999999998
L12 5 4 1n
.ENDS]]>
      </parameter>
			<image>
				<label text="Cout1" position="2676,508" textroot=" " orientation="0" color=""/>  <hotzone points="-24,60,24,-60"/>
        <shape type="line" width="Hair" color="#0000ff" points="0,-60,0,-40"/>
        <shape type="line" width="Hair" color="#0000ff" points="0,60,0,40"/>
        <shape type="line" width="1" color="#0000ff" points="24,-6,-24,-6"/>
        <shape type="line" width="1" color="#0000ff" points="0,40,0,6"/>
        <shape type="line" width="1" color="#0000ff" points="0,-6,0,-40"/>
        <shape type="line" width="1" color="#0000ff" points="24,6,-24,6"/>
        <legend text="100 uF" position="8,18" orientation="0" fontname="Arial" fontsize="12" bold="0" italic="0" color="#229922"/>
        <legend text="4.885 mOhm" position="8,32" orientation="0" fontname="Arial" fontsize="12" bold="0" italic="0" color="#229922"/>
        <legend text="" position="8,48" orientation="0" fontname="Arial" fontsize="12" bold="0" italic="0" color="#229922"/>
        <pin position="0,-60" dir="0" length="0" text="2"/>
        <pin position="0,60" dir="0" length="0" text="4"/>
      </image>
		</component>
    <component type="Cinx2" typeid="57" position="1020,520" mirrored="0" nodematch="0" macrotype="2" orientation="0">
			<parameter idx="0" encrypted="0">
        <![CDATA[
***********************************
*     Created by WB Importer      *
***********************************
.subckt MAIN_BLOCK_WB_TPS54A24_MAIN_BLOCK_NEW_Cinx2 1 2
Cinx2 1 2 1.0E-6

.ends]]>
      </parameter>
			<image>
				<label text="Cinx2" position="1026,498" textroot=" " orientation="0" color=""/>  <hotzone points="-24,60,24,-60"/>
        <shape type="line" width="Hair" color="#0000ff" points="0,-60,0,-40"/>
        <shape type="line" width="Hair" color="#0000ff" points="0,60,0,40"/>
        <shape type="line" width="1" color="#0000ff" points="24,-6,-24,-6"/>
        <shape type="line" width="1" color="#0000ff" points="0,40,0,6"/>
        <shape type="line" width="1" color="#0000ff" points="0,-6,0,-40"/>
        <shape type="line" width="1" color="#0000ff" points="24,6,-24,6"/>
        <legend text="1 uF" position="8,18" orientation="0" fontname="Arial" fontsize="12" bold="0" italic="0" color="#229922"/>
        <legend text="5.522 mOhm" position="8,32" orientation="0" fontname="Arial" fontsize="12" bold="0" italic="0" color="#229922"/>
        <legend text="" position="8,48" orientation="0" fontname="Arial" fontsize="12" bold="0" italic="0" color="#229922"/>
        <pin position="0,-60" dir="0" length="0" text="1"/>
        <pin position="0,60" dir="0" length="0" text="2"/>
      </image>
		</component>
    <component type="Css" typeid="57" position="1380,690" mirrored="0" nodematch="0" macrotype="2" orientation="0">
			<parameter idx="0" encrypted="0">
        <![CDATA[
***********************************
*     Created by WB Importer      *
***********************************
.subckt MAIN_BLOCK_WB_TPS54A24_MAIN_BLOCK_NEW_Css 1 2
Css 1 2 1.0E-8

.ends]]>
      </parameter>
			<image>
				<label text="Css" position="1386,668" textroot=" " orientation="0" color=""/>  <hotzone points="-24,60,24,-60"/>
        <shape type="line" width="Hair" color="#0000ff" points="0,-60,0,-40"/>
        <shape type="line" width="Hair" color="#0000ff" points="0,60,0,40"/>
        <shape type="line" width="1" color="#0000ff" points="24,-6,-24,-6"/>
        <shape type="line" width="1" color="#0000ff" points="0,40,0,6"/>
        <shape type="line" width="1" color="#0000ff" points="0,-6,0,-40"/>
        <shape type="line" width="1" color="#0000ff" points="24,6,-24,6"/>
        <legend text="10 nF" position="8,18" orientation="0" fontname="Arial" fontsize="12" bold="0" italic="0" color="#229922"/>
        <legend text="1 mOhm" position="8,32" orientation="0" fontname="Arial" fontsize="12" bold="0" italic="0" color="#229922"/>
        <legend text="" position="8,48" orientation="0" fontname="Arial" fontsize="12" bold="0" italic="0" color="#229922"/>
        <pin position="0,-60" dir="0" length="0" text="1"/>
        <pin position="0,60" dir="0" length="0" text="2"/>
      </image>
		</component>
    <component type="IInductor" typeid="34" position="2190,310" mirrored="0" nodematch="0" macrotype="2" orientation="0">
			<parameter idx="0" encrypted="0">
			</parameter>
			<image>
				<label text="IInductor" position="2190,310" textroot=" " orientation="0" color=""/>  <hotzone points="-30,-6,30,6"/>
        <shape type="line" width="Hair" color="#0000ff" points="-30,0,30,0"/>
        <shape type="line" width="1" color="#0000ff" points="-6,-4,-6,4"/>
        <shape type="line" width="1" color="#0000ff" points="-6,4,4,0"/>
        <shape type="line" width="1" color="#0000ff" points="4,0,-6,-4"/>
        <pin position="-30,0" dir="0" length="0" text="1"/>
        <pin position="30,0" dir="0" length="0" text="2"/>
      </image>  <parameter idx="0" encrypted="0">
        <![CDATA[***********************************
*     Created by WB Importer      *
***********************************
.SUBCKT IInductor 1 2 
V_Iprobe 1 2 0.0
.ENDS
]]>
      </parameter>
      <parameter idx="1" name="VALUE" value="0"/>
    </component>
    <component type="VOut" typeid="4" position="2720,310" mirrored="0" nodematch="0" macrotype="2" orientation="0">
			<parameter idx="0" encrypted="0">
			</parameter>
			<image>
				<label text="VOut" position="2720,280" textroot="VOut" orientation="0" color="#228822"/>
			</image>
		</component>
    <component type="ICout1" typeid="34" position="2670,390" mirrored="0" nodematch="0" macrotype="2" orientation="0">
			<parameter idx="0" encrypted="0">
			</parameter>
			<image>
				<label text="ICout1" position="2670,390" textroot=" " orientation="0" color=""/>  <hotzone points="6,-30,-6,30"/>
        <shape type="line" width="Hair" color="#0000ff" points="0,-30,0,30"/>
        <shape type="line" width="1" color="#0000ff" points="4,-6,-4,-6"/>
        <shape type="line" width="1" color="#0000ff" points="-4,-6,0,4"/>
        <shape type="line" width="1" color="#0000ff" points="0,4,4,-6"/>
        <pin position="0,-30" dir="0" length="0" text="1"/>
        <pin position="0,30" dir="0" length="0" text="2"/>
      </image>  <parameter idx="0" encrypted="0">
        <![CDATA[***********************************
*     Created by WB Importer      *
***********************************
.SUBCKT ICout1 1 2 
V_Iprobe 1 2 0.0
.ENDS
]]>
      </parameter>
      <parameter idx="1" name="VALUE" value="0"/>
    </component>
    <component type="VPg" typeid="4" position="1780,160" mirrored="0" nodematch="0" macrotype="2" orientation="0">
			<parameter idx="0" encrypted="0">
			</parameter>
			<image>
				<label text="VPg" position="1780,130" textroot="VPg" orientation="0" color="#228822"/>
			</image>
		</component>
    <component type="Ccomp2" typeid="57" position="2120,630" mirrored="0" nodematch="0" macrotype="2" orientation="0">
			<parameter idx="0" encrypted="0">
        <![CDATA[
***********************************
*     Created by WB Importer      *
***********************************
.subckt MAIN_BLOCK_WB_TPS54A24_MAIN_BLOCK_NEW_Ccomp2 1 2
Ccomp2 1 2 1.3E-11

.ends]]>
      </parameter>
			<image>
				<label text="Ccomp2" position="2126,608" textroot=" " orientation="0" color=""/>  <hotzone points="24,-60,-24,60"/>
        <shape type="line" width="Hair" color="#0000ff" points="0,60,0,40"/>
        <shape type="line" width="Hair" color="#0000ff" points="0,-60,0,-40"/>
        <shape type="line" width="1" color="#0000ff" points="-24,6,24,6"/>
        <shape type="line" width="1" color="#0000ff" points="0,-40,0,-6"/>
        <shape type="line" width="1" color="#0000ff" points="0,6,0,40"/>
        <shape type="line" width="1" color="#0000ff" points="-24,-6,24,-6"/>
        <legend text="13 pF" position="8,18" orientation="0" fontname="Arial" fontsize="12" bold="0" italic="0" color="#229922"/>
        <legend text="" position="8,32" orientation="0" fontname="Arial" fontsize="12" bold="0" italic="0" color="#229922"/>